BTL_DTTT1_Project1
*SPICE Netlist generated by Advanced Sim server on 12/21/2022 9:43:37 AM

*Schematic Netlist:

.SAVE 0


*Selected Circuit Analyses:
.TRAN 2E-8 5E-6 0 2E-8
.OP

.END
